Version 4
SHEET 1 4308 1652
WIRE 2608 -400 2400 -400
WIRE 2608 -352 2608 -400
WIRE 2304 -272 2272 -272
WIRE 2512 -272 2384 -272
WIRE 2608 -224 2608 -272
WIRE 2400 -176 2400 -400
WIRE 2144 -160 2048 -160
WIRE 2272 -160 2272 -272
WIRE 2272 -160 2224 -160
WIRE 2352 -160 2272 -160
WIRE 2512 -144 2512 -272
WIRE 2512 -144 2432 -144
WIRE 2560 -144 2512 -144
WIRE 2688 -144 2640 -144
WIRE 2736 -144 2688 -144
WIRE 2752 -144 2736 -144
WIRE 2352 -128 2320 -128
WIRE 2688 -96 2688 -144
WIRE 800 -48 496 -48
WIRE 896 -48 880 -48
WIRE 2400 -16 2400 -112
WIRE 800 64 464 64
WIRE 896 64 896 -48
WIRE 896 64 880 64
WIRE 2320 96 2320 -128
WIRE 2400 96 2400 64
WIRE 2688 96 2688 -16
WIRE 1312 112 1104 112
WIRE 1312 160 1312 112
WIRE 1952 160 1840 160
WIRE 800 176 432 176
WIRE 896 176 896 64
WIRE 896 176 880 176
WIRE 1952 192 1952 160
WIRE 768 224 400 224
WIRE 496 288 496 -48
WIRE 512 288 496 288
WIRE 736 288 608 288
WIRE 768 288 768 224
WIRE 800 288 768 288
WIRE 896 288 896 176
WIRE 896 288 880 288
WIRE 1104 288 1104 112
WIRE 1056 304 992 304
WIRE 1840 304 1840 160
WIRE 1952 304 1952 272
WIRE 464 320 464 64
WIRE 512 320 464 320
WIRE 704 320 608 320
WIRE 1232 320 1136 320
WIRE 1424 320 1232 320
WIRE 1488 320 1424 320
WIRE 1648 320 1552 320
WIRE 1792 320 1648 320
WIRE 896 336 896 288
WIRE 960 336 896 336
WIRE 1056 336 960 336
WIRE 2000 336 1872 336
WIRE 2048 336 2048 -160
WIRE 2048 336 2000 336
WIRE 2432 336 2048 336
WIRE 432 352 432 176
WIRE 512 352 432 352
WIRE 672 352 608 352
WIRE 1792 352 1744 352
WIRE 1104 368 1104 352
WIRE 1312 368 1104 368
WIRE 400 384 400 224
WIRE 512 384 400 384
WIRE 640 384 608 384
WIRE 1648 384 1648 320
WIRE 736 400 736 288
WIRE 800 400 736 400
WIRE 896 400 896 336
WIRE 896 400 880 400
WIRE 1312 416 1312 368
WIRE 960 448 960 336
WIRE 1056 448 960 448
WIRE 1232 448 1232 320
WIRE 1232 448 1136 448
WIRE 1840 464 1840 368
WIRE 704 512 704 320
WIRE 800 512 704 512
WIRE 896 512 896 400
WIRE 896 512 880 512
WIRE 1648 512 1648 464
WIRE 1312 544 1312 496
WIRE 960 560 960 448
WIRE 1056 560 960 560
WIRE 1232 560 1232 448
WIRE 1232 560 1120 560
WIRE 1840 560 1840 544
WIRE 1744 592 1744 352
WIRE 2000 592 2000 336
WIRE 2000 592 1744 592
WIRE 2528 592 2304 592
WIRE 3024 592 2592 592
WIRE 672 608 672 352
WIRE 800 608 672 608
WIRE 896 608 896 512
WIRE 896 608 880 608
WIRE 2896 640 2768 640
WIRE 2896 672 2896 640
WIRE 640 720 640 384
WIRE 800 720 640 720
WIRE 896 720 896 608
WIRE 896 720 880 720
WIRE 2768 832 2768 640
WIRE 2048 848 2048 336
WIRE 2144 848 2048 848
WIRE 2304 848 2304 592
WIRE 2304 848 2224 848
WIRE 2368 848 2304 848
WIRE 2528 848 2448 848
WIRE 2720 848 2528 848
WIRE 3024 864 3024 592
WIRE 3024 864 2800 864
WIRE 3072 864 3024 864
WIRE 3088 864 3072 864
WIRE 2720 880 2656 880
WIRE 2528 944 2528 848
WIRE 2768 992 2768 896
WIRE 2528 1072 2528 1008
WIRE 2656 1136 2656 880
WIRE 3024 1136 3024 864
WIRE 3024 1136 2656 1136
FLAG 1312 240 0
FLAG 992 304 0
FLAG 1312 544 0
FLAG 1840 560 0
FLAG 1952 304 0
FLAG 1648 512 0
FLAG 2608 -224 0
FLAG 2320 96 0
FLAG 2400 96 0
FLAG 2688 96 0
FLAG 2512 -144 vs
FLAG 2768 1072 0
FLAG 2896 752 0
FLAG 2528 1072 0
FLAG 1424 320 v01
FLAG 2432 336 v03
FLAG 2736 -144 v02
FLAG 3072 864 v04
SYMBOL voltage 1312 144 R0
SYMATTR InstName V1
SYMATTR Value 5
SYMBOL res 1152 432 R90
WINDOW 0 0 56 VBottom 2
WINDOW 3 32 56 VTop 2
SYMATTR InstName RF1
SYMATTR Value 120
SYMBOL cap 1120 544 R90
WINDOW 0 0 32 VBottom 2
WINDOW 3 32 32 VTop 2
SYMATTR InstName C1
SYMATTR Value 8.84nF
SYMBOL voltage 1312 400 R0
SYMATTR InstName V2
SYMATTR Value -5
SYMBOL res 896 704 R90
WINDOW 0 0 56 VBottom 2
WINDOW 3 32 56 VTop 2
SYMATTR InstName R1
SYMATTR Value 76800
SYMBOL res 896 592 R90
WINDOW 0 0 56 VBottom 2
WINDOW 3 32 56 VTop 2
SYMATTR InstName R2
SYMATTR Value 38400
SYMBOL res 896 496 R90
WINDOW 0 0 56 VBottom 2
WINDOW 3 32 56 VTop 2
SYMATTR InstName R3
SYMATTR Value 19200
SYMBOL res 896 384 R90
WINDOW 0 0 56 VBottom 2
WINDOW 3 32 56 VTop 2
SYMATTR InstName R4
SYMATTR Value 9600
SYMBOL res 896 272 R90
WINDOW 0 0 56 VBottom 2
WINDOW 3 32 56 VTop 2
SYMATTR InstName R5
SYMATTR Value 4800
SYMBOL res 896 160 R90
WINDOW 0 0 56 VBottom 2
WINDOW 3 32 56 VTop 2
SYMATTR InstName R6
SYMATTR Value 2400
SYMBOL res 896 48 R90
WINDOW 0 0 56 VBottom 2
WINDOW 3 32 56 VTop 2
SYMATTR InstName R7
SYMATTR Value 1200
SYMBOL res 896 -64 R90
WINDOW 0 0 56 VBottom 2
WINDOW 3 32 56 VTop 2
SYMATTR InstName R8
SYMATTR Value 600
SYMBOL AutoGenerated/TRIANG 560 336 R0
SYMATTR InstName U2
SYMBOL AutoGenerated/TL082 1088 320 R0
SYMATTR InstName U3
SYMBOL AutoGenerated/TL082 1824 336 R0
SYMATTR InstName U4
SYMBOL cap 1552 304 R90
WINDOW 0 0 32 VBottom 2
WINDOW 3 32 32 VTop 2
SYMATTR InstName C2
SYMATTR Value 200n
SYMBOL res 1632 368 R0
SYMATTR InstName R9
SYMATTR Value 7957
SYMBOL voltage 1952 176 R0
SYMATTR InstName V3
SYMATTR Value 5
SYMBOL voltage 1840 448 R0
SYMATTR InstName V4
SYMATTR Value -5
SYMBOL AutoGenerated/TL082 2384 -144 R0
SYMATTR InstName U1
SYMBOL res 2240 -176 R90
WINDOW 0 0 56 VBottom 2
WINDOW 3 32 56 VTop 2
SYMATTR InstName R10
SYMATTR Value 1k
SYMBOL res 2400 -288 R90
WINDOW 0 0 56 VBottom 2
WINDOW 3 32 56 VTop 2
SYMATTR InstName R11
SYMATTR Value 7k
SYMBOL res 2656 -160 R90
WINDOW 0 0 56 VBottom 2
WINDOW 3 32 56 VTop 2
SYMATTR InstName R12
SYMATTR Value 2.5k
SYMBOL res 2672 -112 R0
SYMATTR InstName R13
SYMATTR Value 1k
SYMBOL voltage 2608 -368 R0
SYMATTR InstName V5
SYMATTR Value 5
SYMBOL voltage 2400 -32 R0
SYMATTR InstName V6
SYMATTR Value -5
SYMBOL AutoGenerated/TL082 2752 864 R0
SYMATTR InstName U5
SYMBOL voltage 2896 656 R0
SYMATTR InstName V7
SYMATTR Value 5
SYMBOL voltage 2768 976 R0
SYMATTR InstName V8
SYMATTR Value -5
SYMBOL res 2464 832 R90
WINDOW 0 0 56 VBottom 2
WINDOW 3 32 56 VTop 2
SYMATTR InstName R14
SYMATTR Value 12k
SYMBOL res 2240 832 R90
WINDOW 0 0 56 VBottom 2
WINDOW 3 32 56 VTop 2
SYMATTR InstName R15
SYMATTR Value 12k
SYMBOL cap 2512 944 R0
SYMATTR InstName C3
SYMATTR Value 9.37829496n
SYMBOL cap 2592 576 R90
WINDOW 0 0 32 VBottom 2
WINDOW 3 32 32 VTop 2
SYMATTR InstName C4
SYMATTR Value 18.75658992n
TEXT 608 264 Left 2 !.tran 10ms
